I"Ô
<h3 id="the-university-of-hong-kong---area-of-ecology--biodiversity">The University of Hong Kong - Area of Ecology &amp; Biodiversity</h3>
<p>2021 to 2022</p>

<p>Implement insect effects in the land component of an Earth System Model in order to understand the interactions between insect activities and climate change.</p>
<h3 id="the-chinese-university-of-hong-kong---graduate-division-of-earth--atmospheric-sciences">The Chinese University of Hong Kong - Graduate Division of Earth &amp; Atmospheric Sciences</h3>
<p>2016 to 2020</p>

<p>Simulate surface ozone concentrations and investigate the impacts of ozone-vegetation interactions and feedbacks using GEOS-Chem and CESM.<br />
Evaluate different deposition models against a global-scale dataset of observations using a model in R developed with group members.<br />
Investigate observed weather patterns in different regions of United States using statistic models.</p>
<h3 id="peking-university---key-laboratory-for-earth-surface-processes">Peking University - Key Laboratory for Earth Surface Processes</h3>
<p>2013-2016</p>

<p>Analyse the spatial and temporal correlation between two major types of air pollution, PM2.5 and Ozone, over the continental United States.</p>
:ET